LAMMPS (29 Sep 2021 - Update 2)
# LAMMPS input script for FCC Argon crystal

units           metal
dimension       3
boundary        p p p
atom_style      atomic

read_data       structure_fcc.data
Reading data file ...
  orthogonal box = (0.0000000 0.0000000 0.0000000) to (21.040000 21.040000 21.040000)
  reading atoms ...
  256 atoms

pair_style      lj/cut 12.0
pair_coeff      1 1 0.0103 3.405  # Argon LJ parameters

neighbor        2.0 bin
neigh_modify    delay 0 every 1 check yes

# Start with low temperature to avoid instability
velocity        all create 50.0 12345 dist gaussian

# Gentle equilibration
fix             1 all nvt temp 50.0 300.0 1.0
timestep        0.001

thermo_style    custom step temp pe ke etotal press vol density
thermo          50

dump            1 all atom 100 trajectory_fcc.lammpstrj

# Gradual heating and equilibration
run             1000
  update every 1 steps, delay 0 steps, check yes
Step Temp PotEng KinEng TotEng Press Volume Density
0           50   -22.161837    1.6480668    -20.51377    192.23314    9314.0209    1.8232527
Averages over the last 11 of 21 rows, steps 500 to 1000:
Temp PotEng KinEng TotEng Press Volume Density
28.3477 -21.2624 0.934377 -20.328 920.64 9314.02 1.82325
Loop time of 0.438793 on 1 procs for 1000 steps with 256 atoms

print          "FCC Argon simulation completed!"
FCC Argon simulation completed!
